BPAProgram/Sample/IEEE data/300_bus/bpa/300bpa.DAT
(POWERFLOW,CASEID=EMS,PROJECT=TEST)
/P_INPUT_LIST,FULL\
/P_OUTPUT_LIST,FULL\
/P_ANALYSIS_RPT,LEVEL=4\
/TOLERANCE,AIPOWER=0.0001,Q=0.0001\
/SOL_ITER,DECOUPLED=0,CURRENT=0,NEWTON=30\
/NETWORK_DATA\
.234567890*234567890*234567890*234567890*234567890*234567890*234567890*234567890
B     bus-1    100 190.  49.                                                                                                                                                                                                                                                                               
B     bus-2    100 156.  15.                                                                                                                                                                                                                                                                               
B     bus-3    100 120.                                                                                                                                                                                                                                                                                    
B     bus-4    100 1                                                                                                                                                                                                                                                                                       
B     bus-5    100 1353. 130.                                                                                                                                                                                                                                                                              
B     bus-6    100 1120. 41.                                                                                                                                                                                                                                                                               
B     bus-7    100 1                                                                                                                                                                                                                                                                                       
BQ    bus-8    100 158.  14.              -5.  10.  -10. 1015                                                                                                                                                                                                                                              
B     bus-9    100 196.  43.                                                                                                                                                                                                                                                                               
BQ    bus-10   100 1148. 33.              -5.  20.  -20. 1020                                                                                                                                                                                                                                              
B     bus-11   100 183.  21.                                                                                                                                                                                                                                                                               
B     bus-12   100 1                                                                                                                                                                                                                                                                                       
B     bus-13   100 158.  10.                                                                                                                                                                                                                                                                               
B     bus-14   100 1160. 60.                                                                                                                                                                                                                                                                               
B     bus-15   100 1126.723.                                                                                                                                                                                                                                                                               
B     bus-16   100 1                                                                                                                                                                                                                                                                                       
B     bus-17   100 1561. 220.                                                                                                                                                                                                                                                                              
B     bus-19   100 1                                                                                                                                                                                                                                                                                       
BQ    bus-20   100 1595. 120.             -10. 20.  -20. 1001                                                                                                                                                                                                                                              
B     bus-21   100 177.  1.                                                                                                                                                                                                                                                                                
B     bus-22   100 181.  23.                                                                                                                                                                                                                                                                               
B     bus-23   100 121.  7.                                                                                                                                                                                                                                                                                
B     bus-24   100 1                                                                                                                                                                                                                                                                                       
B     bus-25   100 145.  12.                                                                                                                                                                                                                                                                               
B     bus-26   100 128.  9.                                                                                                                                                                                                                                                                                
B     bus-27   100 169.  13.                                                                                                                                                                                                                                                                               
B     bus-33   100 155.  6.                                                                                                                                                                                                                                                                                
B     bus-34   100 1                                                                                                                                                                                                                                                                                       
B     bus-35   100 1                                                                                                                                                                                                                                                                                       
B     bus-36   100 1                                                                                                                                                                                                                                                                                       
B     bus-37   100 185.  32.                                                                                                                                                                                                                                                                               
B     bus-38   100 1155. 18.                                                                                                                                                                                                                                                                               
B     bus-39   100 1                                                                                                                                                                                                                                                                                       
B     bus-40   100 146.  -21.                                                                                                                                                                                                                                                                              
B     bus-41   100 186.                                                                                                                                                                                                                                                                                    
B     bus-42   100 1                                                                                                                                                                                                                                                                                       
B     bus-43   100 139.  9.                                                                                                                                                                                                                                                                                
B     bus-44   100 1195. 29.                                                                                                                                                                                                                                                                               
B     bus-45   100 1                                                                                                                                                                                                                                                                                       
B     bus-46   100 1                                                                                                                                                                                                                                                                                       
B     bus-47   100 158.  11.8                                                                                                                                                                                                                                                                              
B     bus-48   100 141.  19.                                                                                                                                                                                                                                                                               
B     bus-49   100 192.  26.                                                                                                                                                                                                                                                                               
B     bus-51   100 1-5.  5.                                                                                                                                                                                                                                                                                
B     bus-52   100 161.  28.                                                                                                                                                                                                                                                                               
B     bus-53   100 169.  3.                                                                                                                                                                                                                                                                                
B     bus-54   100 110.  1.                                                                                                                                                                                                                                                                                
B     bus-55   100 122.  10.                                                                                                                                                                                                                                                                               
B     bus-57   100 198.  20.                                                                                                                                                                                                                                                                               
B     bus-58   100 114.  1.                                                                                                                                                                                                                                                                                
B     bus-59   100 1218. 106.                                                                                                                                                                                                                                                                              
B     bus-60   100 1                                                                                                                                                                                                                                                                                       
B     bus-61   100 1227. 110.                                                                                                                                                                                                                                                                              
B     bus-62   100 1                                                                                                                                                                                                                                                                                       
BQ    bus-63   100 170.  30.                   25.  -25. 0958                                                                                                                                                                                                                                              
B     bus-64   100 1                                                                                                                                                                                                                                                                                       
B     bus-69   100 1                                                                                                                                                                                                                                                                                       
B     bus-70   100 156.  20.                                                                                                                                                                                                                                                                               
B     bus-71   100 1116. 38.                                                                                                                                                                                                                                                                               
B     bus-72   100 157.  19.                                                                                                                                                                                                                                                                               
B     bus-73   100 1224. 71.                                                                                                                                                                                                                                                                               
B     bus-74   100 1                                                                                                                                                                                                                                                                                       
BQ    bus-76   100 1208. 107.                  35.  12.  0963                                                                                                                                                                                                                                              
B     bus-77   100 174.  28.                                                                                                                                                                                                                                                                               
B     bus-78   100 1                                                                                                                                                                                                                                                                                       
B     bus-79   100 148.  14.                                                                                                                                                                                                                                                                               
B     bus-80   100 128.  7.                                                                                                                                                                                                                                                                                
B     bus-81   100 1                                                                                                                                                                                                                                                                                       
BQ    bus-84   100 137.  13.              375. 240. -240.1025                                                                                                                                                                                                                                              
B     bus-85   100 1                                                                                                                                                                                                                                                                                       
B     bus-86   100 1                                                                                                                                                                                                                                                                                       
B     bus-87   100 1                                                                                                                                                                                                                                                                                       
B     bus-88   100 1                                                                                                                                                                                                                                                                                       
B     bus-89   100 144.2                                                                                                                                                                                                                                                                                   
B     bus-90   100 166.                                                                                                                                                                                                                                                                                    
BQ    bus-91   100 117.4                  155. 96.  -11. 1052                                                                                                                                                                                                                                              
BQ    bus-92   100 115.8                  290. 153. -153.1052                                                                                                                                                                                                                                              
B     bus-94   100 160.3                                                                                                                                                                                                                                                                                   
B     bus-97   100 139.9                                                                                                                                                                                                                                                                                   
BQ    bus-98   100 166.7                  68.  56.  -30. 1000                                                                                                                                                                                                                                              
B     bus-99   100 183.5                                                                                                                                                                                                                                                                                   
B     bus-100  100 1                                                                                                                                                                                                                                                                                       
B     bus-102  100 177.8                                                                                                                                                                                                                                                                                   
B     bus-103  100 132.                                                                                                                                                                                                                                                                                    
B     bus-104  100 18.6                                                                                                                                                                                                                                                                                    
B     bus-105  100 149.6                                                                                                                                                                                                                                                                                   
B     bus-107  100 14.6                                                                                                                                                                                                                                                                                    
BQ    bus-108  100 1112.1                 117. 77.  -24. 0990                                                                                                                                                                                                                                              
B     bus-109  100 130.7                                                                                                                                                                                                                                                                                   
B     bus-110  100 163.                                                                                                                                                                                                                                                                                    
B     bus-112  100 119.6                                                                                                                                                                                                                                                                                   
B     bus-113  100 126.2                                                                                                                                                                                                                                                                                   
B     bus-114  100 118.2                                                                                                                                                                                                                                                                                   
B     bus-115  100 1                                                                                                                                                                                                                                                                                       
B     bus-116  100 1                                                                                                                                                                                                                                                                                       
B     bus-117  100 1              325.                                                                                                                                                                                                                                                                     
B     bus-118  100 114.1 650.                                                                                                                                                                                                                                                                              
BQ    bus-119  100 1                      1930.1500.-500.1043                                                                                                                                                                                                                                              
B     bus-120  100 1777. 215.     55.                                                                                                                                                                                                                                                                      
B     bus-121  100 1535. 55.                                                                                                                                                                                                                                                                               
B     bus-122  100 1229.111.8                                                                                                                                                                                                                                                                              
B     bus-123  100 178.  1.4                                                                                                                                                                                                                                                                               
BQ    bus-124  100 1276.459.3             240. 120. -60. 1023                                                                                                                                                                                                                                              
BQ    bus-125  100 1514.882.7                  200. -25. 1010                                                                                                                                                                                                                                              
B     bus-126  100 157.9 5.1                                                                                                                                                                                                                                                                               
B     bus-127  100 1380.837.                                                                                                                                                                                                                                                                               
B     bus-128  100 1                                                                                                                                                                                                                                                                                       
B     bus-129  100 1                                                                                                                                                                                                                                                                                       
B     bus-130  100 1                                                                                                                                                                                                                                                                                       
B     bus-131  100 1                                                                                                                                                                                                                                                                                       
B     bus-132  100 1                                                                                                                                                                                                                                                                                       
B     bus-133  100 1                                                                                                                                                                                                                                                                                       
B     bus-134  100 1                                                                                                                                                                                                                                                                                       
B     bus-135  100 1169.241.6                                                                                                                                                                                                                                                                              
B     bus-136  100 155.2 18.2                                                                                                                                                                                                                                                                              
B     bus-137  100 1273.699.8                                                                                                                                                                                                                                                                              
BQ    bus-138  100 1826.7135.2            -192.350. -125.1055                                                                                                                                                                                                                                              
B     bus-139  100 1595. 83.3                                                                                                                                                                                                                                                                              
B     bus-140  100 1387.7114.7                                                                                                                                                                                                                                                                             
BQ    bus-141  100 1145. 58.              281. 75.  -50. 1051                                                                                                                                                                                                                                              
B     bus-142  100 156.5 24.5                                                                                                                                                                                                                                                                              
BQ    bus-143  100 189.5 35.5             696. 300. -100.1043                                                                                                                                                                                                                                              
B     bus-144  100 1                                                                                                                                                                                                                                                                                       
B     bus-145  100 124.  14.                                                                                                                                                                                                                                                                               
BQ    bus-146  100 1                      84.  35.  -15. 1052                                                                                                                                                                                                                                              
BQ    bus-147  100 1                      217. 100. -50. 1052                                                                                                                                                                                                                                              
B     bus-148  100 163.  25.                                                                                                                                                                                                                                                                               
BQ    bus-149  100 1                      103. 50.  -25. 1073                                                                                                                                                                                                                                              
B     bus-150  100 1                                                                                                                                                                                                                                                                                       
B     bus-151  100 1                                                                                                                                                                                                                                                                                       
BQ    bus-152  100 117.  9.               372. 175. -50. 1053                                                                                                                                                                                                                                              
BQ    bus-153  100 1                      216. 90.  -50. 1043                                                                                                                                                                                                                                              
B     bus-154  100 170.  5.       34.5                                                                                                                                                                                                                                                                     
B     bus-155  100 1200. 50.                                                                                                                                                                                                                                                                               
BQ    bus-156  100 175.  50.                   15.  -10. 0963                                                                                                                                                                                                                                              
B     bus-157  100 1123.5-24.3                                                                                                                                                                                                                                                                             
B     bus-158  100 1                                                                                                                                                                                                                                                                                       
B     bus-159  100 133.  16.5                                                                                                                                                                                                                                                                              
B     bus-160  100 1                                                                                                                                                                                                                                                                                       
B     bus-161  100 135.  15.                                                                                                                                                                                                                                                                               
B     bus-162  100 185.  24.                                                                                                                                                                                                                                                                               
B     bus-163  100 1     .4                                                                                                                                                                                                                                                                                
B     bus-164  100 1              -212                                                                                                                                                                                                                                                                     
B     bus-165  100 1                                                                                                                                                                                                                                                                                       
B     bus-166  100 1              -103                                                                                                                                                                                                                                                                     
B     bus-167  100 1299.995.7                                                                                                                                                                                                                                                                              
B     bus-168  100 1                                                                                                                                                                                                                                                                                       
B     bus-169  100 1                                                                                                                                                                                                                                                                                       
BQ    bus-170  100 1481.8205.             205. 90.  -40. 0929                                                                                                                                                                                                                                              
BQ    bus-171  100 1763.6291.1                 150. -50. 0982                                                                                                                                                                                                                                              
B     bus-172  100 126.5                                                                                                                                                                                                                                                                                   
B     bus-173  100 1163.543.      53.                                                                                                                                                                                                                                                                      
B     bus-174  100 1                                                                                                                                                                                                                                                                                       
B     bus-175  100 1176. 83.                                                                                                                                                                                                                                                                               
BQ    bus-176  100 15.   4.               228. 90.  -45. 1052                                                                                                                                                                                                                                              
BQ    bus-177  100 128.  12.              84.  35.  -15. 1007                                                                                                                                                                                                                                              
B     bus-178  100 1427.4173.6                                                                                                                                                                                                                                                                             
B     bus-179  100 174.  29.      45.                                                                                                                                                                                                                                                                      
B     bus-180  100 169.5 49.3                                                                                                                                                                                                                                                                              
B     bus-181  100 173.4                                                                                                                                                                                                                                                                                   
B     bus-182  100 1240.789.                                                                                                                                                                                                                                                                               
B     bus-183  100 140.  4.                                                                                                                                                                                                                                                                                
B     bus-184  100 1136.816.6                                                                                                                                                                                                                                                                              
BQ    bus-185  100 1                      200. 80.  -50. 1052                                                                                                                                                                                                                                              
BQ    bus-186  100 159.8 24.3             1200.400. -100.1065                                                                                                                                                                                                                                              
BQ    bus-187  100 159.8 24.3             1200.400. -100.1065                                                                                                                                                                                                                                              
B     bus-188  100 1182.643.6                                                                                                                                                                                                                                                                              
B     bus-189  100 17.   2.                                                                                                                                                                                                                                                                                
BQ    bus-190  100 1              -150    475. 300. -300.1055                                                                                                                                                                                                                                              
BQ    bus-191  100 1489. 53.              1973.1000.-10001043                                                                                                                                                                                                                                              
B     bus-192  100 1800. 72.                                                                                                                                                                                                                                                                               
B     bus-193  100 1                                                                                                                                                                                                                                                                                       
B     bus-194  100 1                                                                                                                                                                                                                                                                                       
B     bus-195  100 1                                                                                                                                                                                                                                                                                       
B     bus-196  100 110.  3.                                                                                                                                                                                                                                                                                
B     bus-197  100 143.  14.                                                                                                                                                                                                                                                                               
BQ    bus-198  100 164.  21.              424. 260. -260.1015                                                                                                                                                                                                                                              
B     bus-199  100 135.  12.                                                                                                                                                                                                                                                                               
B     bus-200  100 127.  12.                                                                                                                                                                                                                                                                               
B     bus-201  100 141.  14.                                                                                                                                                                                                                                                                               
B     bus-202  100 138.  13.                                                                                                                                                                                                                                                                               
B     bus-203  100 142.  14.                                                                                                                                                                                                                                                                               
B     bus-204  100 172.  24.                                                                                                                                                                                                                                                                               
B     bus-205  100 1     -5.                                                                                                                                                                                                                                                                               
B     bus-206  100 112.  2.                                                                                                                                                                                                                                                                                
B     bus-207  100 1-21. -14.2                                                                                                                                                                                                                                                                             
B     bus-208  100 17.   2.                                                                                                                                                                                                                                                                                
B     bus-209  100 138.  13.                                                                                                                                                                                                                                                                               
B     bus-210  100 1                                                                                                                                                                                                                                                                                       
B     bus-211  100 196.  7.                                                                                                                                                                                                                                                                                
B     bus-212  100 1                                                                                                                                                                                                                                                                                       
BQ    bus-213  100 1                      272. 150. -150.1010                                                                                                                                                                                                                                              
B     bus-214  100 122.  16.                                                                                                                                                                                                                                                                               
B     bus-215  100 147.  26.                                                                                                                                                                                                                                                                               
B     bus-216  100 1176. 105.                                                                                                                                                                                                                                                                              
B     bus-217  100 1100. 75.                                                                                                                                                                                                                                                                               
B     bus-218  100 1131. 96.                                                                                                                                                                                                                                                                               
B     bus-219  100 1                                                                                                                                                                                                                                                                                       
BQ    bus-220  100 1285. 100.             100. 60.  -60. 1008                                                                                                                                                                                                                                              
...